/*--------------------------------*- C++ -*----------------------------------*\
| =========                 |                                                 |
| \\      /  F ield         | foam-extend: Open Source CFD                    |
|  \\    /   O peration     | Version:     4.0                                |
|   \\  /    A nd           | Web:         http://www.foam-extend.org         |
|    \\/     M anipulation  |                                                 |
\*---------------------------------------------------------------------------*/
FoamFile
{
    version     2.0;
    format      ascii;
    class       volScalarField;
    object      PotE;
}
// * * * * * * * * * * * * * * * * * * * * * * * * * * * * * * * * * * * * * //

dimensions      [-1 -3 3 0 0 2 0];

internalField   uniform 1;

boundaryField
{
    frontAndBack
    {
        type            zeroGradient;
    }

    topWall
    {
        type            zeroGradient;
    }

    botWall
    {
        type            zeroGradient;
    }

    leftAndRight
    {
        type            zeroGradient;
    }         
}


// ************************************************************************* //
